D1
  DSViewer          3D                             0

 51 54  0  0  0  0  0  0  0  0999 V2000
    9.0262   -4.3470    3.5979 C   0  0
    9.6785   -5.6790    3.6466 O   0  0
   10.7828   -5.5430    2.7128 C   0  0  1  0  0  0
   11.7212   -6.0423    3.0230 H   0  0
   10.4397   -5.8487    1.3578 O   0  0
   11.4521   -5.1398    0.5300 C   0  0
   11.9443   -3.9892    1.4425 C   0  0
   10.9324   -4.1151    2.5366 C   0  0  1  0  0  0
   11.2581   -3.5895    3.4638 H   0  0
    9.4457   -3.6968    2.2620 C   0  0  1  0  0  0
    9.3637   -2.6076    2.2088 H   0  0
    8.4789   -4.2807    1.2251 O   0  0
    7.3646   -3.2513    0.9022 C   0  0
    7.6095   -2.0535    1.0662 O   0  0
    5.9066   -3.6485    0.5730 N   0  0
    4.5096   -2.7834    0.3154 C   0  0  1  0  0  0
    4.8156   -1.8926   -0.2573 H   0  0
    3.7143   -3.6615   -0.7195 C   0  0
    3.5255   -5.1427   -0.4618 C   0  0
    4.6167   -5.9591   -0.1736 C   0  0
    4.4600   -7.3298   -0.0134 C   0  0
    3.2003   -7.8957   -0.1581 C   0  0
    2.1106   -7.0891   -0.4680 C   0  0
    2.2729   -5.7173   -0.6285 C   0  0
    3.3876   -1.9976    1.5883 C   0  0  2  0  0  0
    2.6926   -1.5410    0.9782 H   0  0
    4.2032   -0.9683    2.0785 O   0  0
    2.3565   -2.6796    3.0648 C   0  0
    1.1468   -1.9852    4.4577 N   0  0
    1.0134   -0.9388    5.9273 C   0  0
    1.2898   -1.0205    7.6224 C   0  0
    2.5478   -0.4701    8.3387 C   0  0
    0.5990   -2.1034    8.4648 C   0  0
   -0.3298   -1.4363    3.9679 S   0  0
   -0.5949   -1.8996    2.5639 O   0  0
   -0.2854    0.0462    4.2351 O   0  0
   -1.5359   -2.0687    5.0462 C   0  0
   -2.1112   -3.2535    4.6790 C   0  0
   -3.0412   -3.8504    5.5122 C   0  0
   -3.3686   -3.2730    6.7350 C   0  0
   -4.2618   -3.8808    7.6074 N   0  0
   -2.7855   -2.0573    7.1152 C   0  0
   -1.8967   -1.4626    6.2501 C   0  0
   -3.0924   -1.4084    8.4760 C   0  0
   -2.2938   -0.1439    8.7259 N   0  3
   -1.3021   -0.3275    8.6863 H   0  0
   -2.5142    0.2229    9.6627 H   0  0
   -2.5230    0.5623    8.0288 H   0  0
   -3.6278   -5.1269    5.0016 C   0  0
   -5.1603   -5.0497    5.0072 C   0  0
   -3.1170   -5.3867    3.5554 C   0  0
 49 51  1  0  0  0
 49 50  1  0  0  0
 39 49  1  0  0  0
 45 48  1  0  0  0
 45 47  1  0  0  0
 45 46  1  0  0  0
 44 45  1  0  0  0
 42 44  1  0  0  0
 43 37  4  0  0  0
 42 43  4  0  0  0
 40 42  4  0  0  0
 40 41  1  0  0  0
 39 40  4  0  0  0
 38 39  4  0  0  0
 37 38  4  0  0  0
 34 37  1  0  0  0
 34 36  2  0  0  0
 34 35  2  0  0  0
 29 34  1  0  0  0
 31 33  1  0  0  0
 31 32  1  0  0  0
 30 31  1  0  0  0
 29 30  1  0  0  0
 28 29  1  0  0  0
 25 28  1  0  0  0
 25 27  1  0  0  0
 25 26  1  0  0  0
 16 25  1  0  0  0
 24 19  4  0  0  0
 23 24  4  0  0  0
 22 23  4  0  0  0
 21 22  4  0  0  0
 20 21  4  0  0  0
 19 20  4  0  0  0
 18 19  1  0  0  0
 16 18  1  0  0  0
 16 17  1  0  0  0
 15 16  1  0  0  0
 13 15  1  0  0  0
 13 14  2  0  0  0
 12 13  1  0  0  0
 10 12  1  0  0  0
 10  1  1  0  0  0
 10 11  1  0  0  0
  8 10  1  0  0  0
  8  3  1  0  0  0
  8  9  1  0  0  0
  7  8  1  0  0  0
  6  7  1  0  0  0
  5  6  1  0  0  0
  3  5  1  0  0  0
  3  4  1  0  0  0
  2  3  1  0  0  0
  1  2  1  0  0  0
M  CHG  1  45   1
M  END
> <Clean Energy>
343.238

$$$$
D2
  DSViewer          3D                             0

 46 49  0  0  0  0  0  0  0  0999 V2000
    8.4406    1.7949   10.0952 C   0  0
    9.3485    0.6039   10.2661 O   0  0
   10.1298    0.5471    9.0156 C   0  0  1  0  0  0
   11.2150    0.3563    9.1429 H   0  0
    9.6405   -0.2729    8.0064 O   0  0
   10.4793    0.2181    6.8887 C   0  0
   10.4249    1.7106    6.9867 C   0  0
    9.8105    1.8035    8.3497 C   0  0  1  0  0  0
   10.2115    2.6765    8.8760 H   0  0
    8.2068    1.8715    8.5890 C   0  0  1  0  0  0
    7.8694    2.8527    8.2410 H   0  0
    6.9389    0.9206    8.2994 O   0  0
    6.4843    0.5914    6.9544 C   0  0
    7.3688    0.6519    6.1204 O   0  0
    4.8851    0.2170    6.5866 N   0  0
    4.1011   -0.3276    5.1956 C   0  0  1  0  0  0
    4.8129   -0.3640    4.4928 H   0  0
    4.0216   -2.0169    5.6648 C   0  0
    3.3589   -3.1442    6.5891 C   0  0
    2.3103   -3.9291    6.1024 C   0  0
    1.7600   -4.9754    6.8285 C   0  0
    2.2941   -5.2847    8.0699 C   0  0
    3.3720   -4.5494    8.5538 C   0  0
    3.9096   -3.4936    7.8190 C   0  0
    2.8033    0.7771    4.1425 C   0  0  1  0  0  0
    2.0153    1.1331    4.7924 H   0  0
    3.4960    1.7041    3.7142 O   0  0
    2.0637    0.7585    2.5168 C   0  0
    0.7590    0.0641    1.8705 N   0  0
    0.9265    0.0720    0.3325 C   0  0
   -0.1101   -0.7710   -0.5008 C   0  0
    0.0136   -2.2803   -0.2013 C   0  0
    0.1719   -0.5839   -2.0022 C   0  0
   -0.6446    1.1753    2.0077 S   0  0
   -0.7020    2.0512    0.7689 O   0  0
   -0.3634    2.0344    3.2088 O   0  0
   -2.2686    0.4415    2.3284 C   0  0
   -2.8391   -0.5754    1.5717 C   0  0
   -4.0597   -1.1195    1.9616 C   0  0
   -4.7180   -0.6607    3.1004 C   0  0
   -5.9410   -1.2446    3.4450 N   0  0
   -4.1530    0.3706    3.8541 C   0  0
   -2.9368    0.9040    3.4534 C   0  0
   -4.7953    0.9678    5.1124 C   0  0
   -3.8087    1.8691    5.8863 C   0  0
   -5.5570   -0.0120    6.0319 C   0  0
 44 46  1  0  0  0
 44 45  1  0  0  0
 42 44  1  0  0  0
 43 37  4  0  0  0
 42 43  4  0  0  0
 40 42  4  0  0  0
 40 41  1  0  0  0
 39 40  4  0  0  0
 38 39  4  0  0  0
 37 38  4  0  0  0
 34 37  1  0  0  0
 34 36  2  0  0  0
 34 35  2  0  0  0
 29 34  1  0  0  0
 31 33  1  0  0  0
 31 32  1  0  0  0
 30 31  1  0  0  0
 29 30  1  0  0  0
 28 29  1  0  0  0
 25 28  1  0  0  0
 25 27  1  0  0  0
 25 26  1  0  0  0
 16 25  1  0  0  0
 24 19  4  0  0  0
 23 24  4  0  0  0
 22 23  4  0  0  0
 21 22  4  0  0  0
 20 21  4  0  0  0
 19 20  4  0  0  0
 18 19  1  0  0  0
 16 18  1  0  0  0
 16 17  1  0  0  0
 15 16  1  0  0  0
 13 15  1  0  0  0
 13 14  2  0  0  0
 12 13  1  0  0  0
 10 12  1  0  0  0
 10  1  1  0  0  0
 10 11  1  0  0  0
  8 10  1  0  0  0
  8  3  1  0  0  0
  8  9  1  0  0  0
  7  8  1  0  0  0
  6  7  1  0  0  0
  5  6  1  0  0  0
  3  5  1  0  0  0
  3  4  1  0  0  0
  2  3  1  0  0  0
  1  2  1  0  0  0
M  END
> <Clean Energy>
333.192

$$$$
D3
  DSViewer          3D                             0

 46 49  0  0  0  0  0  0  0  0999 V2000
    7.5349   -3.9998    7.3223 C   0  0
    7.3442   -4.3582    8.7896 O   0  0
    8.6236   -4.9017    8.8958 C   0  0  1  0  0  0
    8.9212   -5.4335    9.8084 H   0  0
    8.6758   -5.8343    7.7398 O   0  0
   10.0757   -6.0852    7.4439 C   0  0
   10.7579   -4.8461    8.0420 C   0  0
    9.6267   -3.8421    8.4516 C   0  0  1  0  0  0
   10.0006   -3.0437    9.1005 H   0  0
    8.6737   -3.1001    7.4771 C   0  0  1  0  0  0
    8.1569   -2.3318    8.0696 H   0  0
    9.4204   -2.5068    6.3861 O   0  0
    8.8169   -1.7648    5.3247 C   0  0
    9.5713   -1.4184    4.4105 O   0  0
    7.4995   -1.5599    5.1455 N   0  0
    7.1019   -1.1848    3.8096 C   0  0  1  0  0  0
    7.8972   -1.4846    3.1479 H   0  0
    5.9560   -2.3819    3.4540 C   0  0
    5.5744   -4.0640    3.7671 C   0  0
    5.8174   -4.7572    4.9448 C   0  0
    5.2573   -6.0105    5.2240 C   0  0
    4.3908   -6.6304    4.3352 C   0  0
    4.1258   -5.9755    3.1493 C   0  0
    4.7057   -4.7337    2.9053 C   0  0
    6.8968    0.7828    3.4477 C   0  0  2  0  0  0
    6.6014    0.8658    2.3886 H   0  0
    8.2543    1.1817    3.5693 O   0  0
    6.1227    2.3521    4.3986 C   0  0
    4.5615    3.1148    4.9290 N   0  0
    4.7121    4.0514    6.1044 C   0  0
    4.8324    3.3979    7.4953 C   0  0
    5.0396    4.4798    8.5594 C   0  0
    3.5387    2.6897    7.8441 C   0  0
    3.4979    4.2294    3.7427 S   0  0
    3.7978    3.8122    2.3184 O   0  0
    4.0211    5.6411    3.9151 O   0  0
    1.5283    4.3921    3.7703 C   0  0
    0.9547    4.5381    2.5019 C   0  0
   -0.4179    4.6754    2.2857 C   0  0
   -1.2908    4.6595    3.3620 C   0  0
   -2.6859    4.7618    3.1735 N   0  0
   -0.7547    4.5307    4.6333 C   0  0
    0.6238    4.4141    4.8564 C   0  0
    1.0489    4.3207    6.2755 C   0  0
    1.0770    5.7244    7.0029 C   0  0
   -0.3118    6.4105    7.1855 C   0  0
 45 46  1  0  0  0
 44 45  1  0  0  0
 43 44  1  0  0  0
 43 37  4  0  0  0
 42 43  4  0  0  0
 40 42  4  0  0  0
 40 41  1  0  0  0
 39 40  4  0  0  0
 38 39  4  0  0  0
 37 38  4  0  0  0
 34 37  1  0  0  0
 34 36  2  0  0  0
 34 35  2  0  0  0
 29 34  1  0  0  0
 31 33  1  0  0  0
 31 32  1  0  0  0
 30 31  1  0  0  0
 29 30  1  0  0  0
 28 29  1  0  0  0
 25 28  1  0  0  0
 25 27  1  0  0  0
 25 26  1  0  0  0
 16 25  1  0  0  0
 24 19  4  0  0  0
 23 24  4  0  0  0
 22 23  4  0  0  0
 21 22  4  0  0  0
 20 21  4  0  0  0
 19 20  4  0  0  0
 18 19  1  0  0  0
 16 18  1  0  0  0
 16 17  1  0  0  0
 15 16  1  0  0  0
 13 15  1  0  0  0
 13 14  2  0  0  0
 12 13  1  0  0  0
 10 12  1  0  0  0
 10  1  1  0  0  0
 10 11  1  0  0  0
  8 10  1  0  0  0
  8  3  1  0  0  0
  8  9  1  0  0  0
  7  8  1  0  0  0
  6  7  1  0  0  0
  5  6  1  0  0  0
  3  5  1  0  0  0
  3  4  1  0  0  0
  2  3  1  0  0  0
  1  2  1  0  0  0
M  END
> <Clean Energy>
339.496

$$$$
