C1
  DSViewer          3D                             0

 48 51  0  0  0  0  0  0  0  0999 V2000
   -0.3552    0.5805    0.2192 C   0  0  2  0  0  0
   -1.2280    0.2894   -0.3302 H   0  0
    0.9106   -0.1146   -0.2332 O   0  0
    1.9937    0.9252   -0.1342 C   0  0  1  0  0  0
    2.9594    0.5718    0.2648 H   0  0
    2.2054    1.6540   -1.3551 O   0  0
    2.8369    2.9379   -0.9512 C   0  0
    2.3988    3.1266    0.5306 C   0  0
    1.3958    2.0025    0.6613 C   0  0  1  0  0  0
    1.2034    1.7440    1.6930 H   0  0
    0.0338    2.0794   -0.0268 C   0  0  1  0  0  0
   -0.6369    2.8221    0.4189 H   0  0
   -0.0019    2.2483   -1.4661 O   0  0
   -1.3799    2.2853   -1.7640 C   0  0
   -2.1798    2.3862   -0.8220 O   0  0
   -1.9253    2.2272   -3.0452 N   0  0
   -3.3516    2.3619   -3.0111 C   0  0  1  0  0  0
   -3.5328    3.0603   -2.2676 H   0  0
   -3.9026    2.9402   -4.3678 C   0  0
   -3.6385    2.1818   -5.6672 C   0  0
   -4.1587    2.7026   -6.8459 C   0  0
   -3.9255    2.0682   -8.0608 C   0  0
   -3.1661    0.9054   -8.1070 C   0  0
   -2.6395    0.3815   -6.9341 C   0  0
   -2.8744    1.0239   -5.7248 C   0  0
   -4.0879    1.0911   -2.4820 C   0  0  2  0  0  0
   -3.6362    0.7647   -1.5307 H   0  0
   -3.9924    0.0177   -3.4024 O   0  0
   -5.5899    1.3900   -2.1631 C   0  0
   -5.8707    2.3303   -0.9360 N   0  0
   -7.2114    1.9541   -0.4436 C   0  0
   -7.2260    0.4950    0.0795 C   0  0
   -6.2672    0.3651    1.2877 C   0  0
   -8.6511    0.1341    0.5364 C   0  0
   -5.9762    4.1227   -1.1639 S   0  0
   -6.6145    4.6347    0.1129 O   0  0
   -6.8892    4.4339   -2.3328 O   0  0
   -4.4433    5.0408   -1.2994 C   0  0
   -3.4775    4.9475   -0.3017 C   0  0
   -2.2676    5.6209   -0.4381 C   0  0
   -2.0220    6.3883   -1.5715 C   0  0
   -0.8020    7.0533   -1.7172 N   0  0
   -2.9924    6.4951   -2.5609 C   0  0
   -4.2017    5.8234   -2.4238 C   0  0
   -0.5778    0.2530    1.6400 N   0  0
   -1.5480   -0.5025    2.0653 C   0  0
   -2.6024   -1.1210    1.1693 C   0  0
   -1.6432   -0.8481    3.5130 C   0  0
 46 48  1  0  0  0
 46 47  1  0  0  0
 45 46  2  0  0  0
  1 45  1  0  0  0
 44 38  4  0  0  0
 43 44  4  0  0  0
 41 43  4  0  0  0
 41 42  1  0  0  0
 40 41  4  0  0  0
 39 40  4  0  0  0
 38 39  4  0  0  0
 35 38  1  0  0  0
 35 37  2  0  0  0
 35 36  2  0  0  0
 30 35  1  0  0  0
 32 34  1  0  0  0
 32 33  1  0  0  0
 31 32  1  0  0  0
 30 31  1  0  0  0
 29 30  1  0  0  0
 26 29  1  0  0  0
 26 28  1  0  0  0
 26 27  1  0  0  0
 17 26  1  0  0  0
 25 20  4  0  0  0
 24 25  4  0  0  0
 23 24  4  0  0  0
 22 23  4  0  0  0
 21 22  4  0  0  0
 20 21  4  0  0  0
 19 20  1  0  0  0
 17 19  1  0  0  0
 17 18  1  0  0  0
 16 17  1  0  0  0
 14 16  1  0  0  0
 14 15  2  0  0  0
 13 14  1  0  0  0
 11 13  1  0  0  0
 11  1  1  0  0  0
 11 12  1  0  0  0
  9 11  1  0  0  0
  9  4  1  0  0  0
  9 10  1  0  0  0
  8  9  1  0  0  0
  7  8  1  0  0  0
  6  7  1  0  0  0
  4  6  1  0  0  0
  4  5  1  0  0  0
  3  4  1  0  0  0
  1  3  1  0  0  0
  1  2  1  0  0  0
M  END
> <Clean Energy>
98.3292

$$$$
C2
  DSViewer          3D                             0

 45 48  0  0  0  0  0  0  0  0999 V2000
    6.2818   -8.9451    0.0740 C   0  0
    7.5020   -9.1438    1.0217 O   0  0
    6.7925   -9.9826    1.8773 C   0  0  1  0  0  0
    6.4418  -10.7157    1.1287 H   0  0
    7.3075  -10.7386    2.9684 O   0  0
    6.0456  -11.0177    3.6692 C   0  0  1  0  0  0
    5.9258  -10.2486    4.4608 H   0  0
    4.9415  -10.7115    2.5874 C   0  0
    5.5273   -9.3370    2.3403 C   0  0  2  0  0  0
    5.4784   -8.7718    3.2599 H   0  0
    5.3644   -8.2119    1.1281 C   0  0  1  0  0  0
    4.2926   -8.1095    0.8790 H   0  0
    6.4340   -4.5058    2.1633 O   0  0
    6.0553   -3.6274    3.4869 C   0  0
    5.2773   -4.1270    4.3024 O   0  0
    6.4749   -2.2941    3.7998 N   0  0
    5.8274   -1.7359    5.0395 C   0  0  1  0  0  0
    4.7748   -1.8667    4.9070 H   0  0
    6.2275   -2.5767    6.3318 C   0  0
    7.6813   -2.7364    6.7214 C   0  0
    8.7269   -2.5431    5.8238 C   0  0
   10.0396   -2.7492    6.2345 C   0  0
   10.3099   -3.1521    7.5379 C   0  0
    9.2662   -3.3506    8.4332 C   0  0
    7.9560   -3.1469    8.0206 C   0  0
    6.0013   -0.2265    5.3332 C   0  0  2  0  0  0
    5.6429    0.3823    4.4866 H   0  0
    7.3742    0.0774    5.5775 O   0  0
    5.1257    0.0756    6.6544 C   0  0
    3.5820   -0.0662    6.5575 N   0  0
    3.1790   -0.7842    7.9462 C   0  0
    1.6710   -1.0742    8.5606 C   0  0
    1.8329   -1.8136    9.8885 C   0  0
    0.6572   -1.9501    7.7704 C   0  0
    3.0241    1.6818    6.2450 S   0  0
    3.2904    2.3958    7.5649 O   0  0
    4.0592    2.2398    5.2688 O   0  0
   -0.8631    2.2560    4.8310 C   0  0
   -1.1798    2.8524    3.5980 C   0  0
   -2.4973    3.0858    3.1947 C   0  0
   -3.5620    2.7410    4.0170 C   0  0
   -4.8855    2.9784    3.6247 N   0  0
   -3.2996    2.1578    5.2428 C   0  0
   -1.9832    1.9321    5.6263 C   0  0
    5.9973  -12.4100    4.3095 C   0  0
  6 45  1  0  0  0
 44 38  4  0  0  0
 43 44  4  0  0  0
 41 43  4  0  0  0
 41 42  1  0  0  0
 40 41  4  0  0  0
 39 40  4  0  0  0
 38 39  4  0  0  0
 35 38  1  0  0  0
 35 37  2  0  0  0
 35 36  2  0  0  0
 30 35  1  0  0  0
 32 34  1  0  0  0
 32 33  1  0  0  0
 31 32  1  0  0  0
 30 31  1  0  0  0
 29 30  1  0  0  0
 26 29  1  0  0  0
 26 28  1  0  0  0
 26 27  1  0  0  0
 17 26  1  0  0  0
 25 20  4  0  0  0
 24 25  4  0  0  0
 23 24  4  0  0  0
 22 23  4  0  0  0
 21 22  4  0  0  0
 20 21  4  0  0  0
 19 20  1  0  0  0
 17 19  1  0  0  0
 17 18  1  0  0  0
 16 17  1  0  0  0
 14 16  1  0  0  0
 14 15  2  0  0  0
 13 14  1  0  0  0
 11 13  1  0  0  0
 11  1  1  0  0  0
 11 12  1  0  0  0
  9 11  1  0  0  0
  9  3  1  0  0  0
  9 10  1  0  0  0
  8  9  1  0  0  0
  6  8  1  0  0  0
  6  7  1  0  0  0
  5  6  1  0  0  0
  3  5  1  0  0  0
  3  4  1  0  0  0
  2  3  1  0  0  0
  1  2  1  0  0  0
M  END
> <Clean Energy>
1660.26

$$$$
C3
  DSViewer          3D                             0

 47 50  0  0  0  0  0  0  0  0999 V2000
   -1.2743   -2.2240   -2.2896 C   0  0
   -1.7218   -1.3470   -3.4138 O   0  0
   -0.4885   -1.0196   -4.1055 C   0  0  1  0  0  0
   -0.2131   -1.7943   -4.8286 H   0  0
   -0.3104    0.2913   -4.6814 O   0  0
    1.0309    0.6812   -4.2046 C   0  0  1  0  0  0
    0.8953    1.1990   -3.2523 H   0  0
    1.7339   -0.6649   -3.8520 C   0  0
    0.4984   -1.0915   -3.0916 C   0  0  2  0  0  0
    0.2976   -0.3693   -2.3127 H   0  0
    0.2136   -2.4878   -2.5981 C   0  0  1  0  0  0
    0.3016   -3.1826   -3.4422 H   0  0
    0.9275   -2.9936   -1.4441 O   0  0
    2.2323   -3.3746   -1.7063 C   0  0
    2.6875   -3.3340   -2.8540 O   0  0
    3.0159   -3.8860   -0.6843 N   0  0
    2.5666   -3.9365    0.6873 C   0  0  1  0  0  0
    1.4722   -3.8722    0.7582 H   0  0
    3.0361   -5.2744    1.3985 C   0  0
    4.5400   -5.6475    1.5214 C   0  0
    5.4773   -5.5611    0.3594 C   0  0
    6.9053   -5.9873    0.5022 C   0  0
    7.4236   -6.5034    1.8148 C   0  0
    6.4990   -6.5916    2.9985 C   0  0
    5.0443   -6.1866    2.8371 C   0  0
    3.1896   -2.7359    1.3979 C   0  0  2  0  0  0
    2.8507   -1.7865    0.9672 H   0  0
    4.5851   -2.8192    1.1792 O   0  0
    2.9880   -2.7672    2.9552 C   0  0
    1.7953   -2.4284    3.7919 N   0  0
    2.3291   -2.9198    5.0930 C   0  0
    1.9152   -4.3893    5.6036 C   0  0
    2.7857   -4.7435    6.8358 C   0  0
    2.0330   -5.5574    4.6265 C   0  0
    1.9518   -0.6557    3.5839 S   0  0
    1.4971   -0.4552    2.1931 O   0  0
    3.4396   -0.3855    3.5372 O   0  0
    1.3391    0.7556    4.6429 C   0  0
    1.7025    2.1170    4.1635 C   0  0
    1.5382    3.3209    5.0258 C   0  0
    1.0121    3.1802    6.4089 C   0  0
    0.8652    4.3150    7.2107 N   0  0
    0.6352    1.8229    6.9171 C   0  0
    0.7947    0.6207    6.0206 C   0  0
    1.7481    1.6247   -5.1755 C   0  0
    0.8802    2.8912   -5.3405 C   0  0
    3.1223    2.0219   -4.6139 C   0  0
 45 47  1  0  0  0
 45 46  1  0  0  0
  6 45  1  0  0  0
 44 38  4  0  0  0
 43 44  4  0  0  0
 41 43  4  0  0  0
 41 42  1  0  0  0
 40 41  4  0  0  0
 39 40  4  0  0  0
 38 39  4  0  0  0
 35 38  1  0  0  0
 35 37  2  0  0  0
 35 36  2  0  0  0
 30 35  1  0  0  0
 32 34  1  0  0  0
 32 33  1  0  0  0
 31 32  1  0  0  0
 30 31  1  0  0  0
 29 30  1  0  0  0
 26 29  1  0  0  0
 26 28  1  0  0  0
 26 27  1  0  0  0
 17 26  1  0  0  0
 25 20  4  0  0  0
 24 25  4  0  0  0
 23 24  4  0  0  0
 22 23  4  0  0  0
 21 22  4  0  0  0
 20 21  4  0  0  0
 19 20  1  0  0  0
 17 19  1  0  0  0
 17 18  1  0  0  0
 16 17  1  0  0  0
 14 16  1  0  0  0
 14 15  2  0  0  0
 13 14  1  0  0  0
 11 13  1  0  0  0
 11  1  1  0  0  0
 11 12  1  0  0  0
  9 11  1  0  0  0
  9  3  1  0  0  0
  9 10  1  0  0  0
  8  9  1  0  0  0
  6  8  1  0  0  0
  6  7  1  0  0  0
  5  6  1  0  0  0
  3  5  1  0  0  0
  3  4  1  0  0  0
  2  3  1  0  0  0
  1  2  1  0  0  0
M  END
> <Clean Energy>
426.158

$$$$
